<routes>
<vType id="car" accel="0.8" decel="4.5" maxSpeed="25"/>
<route id="r0" edges="A0A1 A1A2"/>
<vehicle id="veh1" type="car" route="r0" depart="0"/>
<vehicle id="veh2" type="car" route="r0" depart="2"/>
<vehicle id="veh3" type="car" route="r0" depart="4"/>
</routes>
